*NODE
1, 0.00000000, 0.00000000
2, 0.10000000, 0.00000000
3, 0.20000000, 0.00000000
4, 0.30000000, 0.00000000
5, 0.40000000, 0.00000000
6, 0.50000000, 0.00000000
7, 0.60000000, 0.00000000
8, 0.70000000, 0.00000000
9, 0.80000000, 0.00000000
10, 0.90000000, 0.00000000
11, 1.00000000, 0.00000000
12, 0.00000000, 0.05000000
13, 0.10000000, 0.05000000
14, 0.20000000, 0.05000000
15, 0.30000000, 0.05000000
16, 0.40000000, 0.05000000
17, 0.50000000, 0.05000000
18, 0.60000000, 0.05000000
19, 0.70000000, 0.05000000
20, 0.80000000, 0.05000000
** ... 13 like lines cut
*ELEMENT, TYPE=CPS4, ELSET=BEAM
1, 1, 2, 13, 12
2, 2, 3, 14, 13
3, 3, 4, 15, 14
4, 4, 5, 16, 15
5, 5, 6, 17, 16
6, 6, 7, 18, 17
7, 7, 8, 19, 18
8, 8, 9, 20, 19
9, 9, 10, 21, 20
10, 10, 11, 22, 21
11, 12, 13, 24, 23
12, 13, 14, 25, 24
13, 14, 15, 26, 25
14, 15, 16, 27, 26
15, 16, 17, 28, 27
16, 17, 18, 29, 28
17, 18, 19, 30, 29
18, 19, 20, 31, 30
19, 20, 21, 32, 31
20, 21, 22, 33, 32
*MATERIAL, NAME=Steel
*ELASTIC
210.0e9, 0.3
*SOLID SECTION, ELSET=BEAM, MATERIAL=Steel
0.01
*BOUNDARY
1, 1, 2, 0.0
12, 1, 2, 0.0
23, 1, 2, 0.0
*CLOAD
11, 2, -33.33333333
22, 2, -33.33333333
33, 2, -33.33333333
*STEP
*STATIC
*END STEP