*NODE
1, 0,0,0
2, 1,0,0
3, 1,1,0
4, 0,1,0
5, 0,0,1
6, 1,0,1
7, 1,1,1
8, 0,1,1
*ELEMENT, TYPE=C3D8, ELSET=CUBE
1, 1,2,3,4,5,6,7,8
*MATERIAL, NAME=Aluminum
*ELASTIC
70.0e9, 0.33
*SOLID SECTION, ELSET=CUBE, MATERIAL=Aluminum
*BOUNDARY
5, 3, 3, -0.001
6, 3, 3, -0.001
7, 3, 3, -0.001
8, 3, 3, -0.001
1, 3, 3, 0.0
2, 3, 3, 0.0
3, 3, 3, 0.0
4, 3, 3, 0.0
1, 2, 2, 0.0
2, 2, 2, 0.0
5, 2, 2, 0.0
6, 2, 2, 0.0
1, 1, 1, 0.0
4, 1, 1, 0.0
5, 1, 1, 0.0
8, 1, 1, 0.0
*STEP
*STATIC
*END STEP