*Heading
** Job name: H8 Model name: 3dHex
** Generated by: Abaqus/CAE 6.14-1
*Preprint, echo=NO, model=NO, history=NO, contact=NO
**
** PARTS
**
*Part, name=Part-1
*Node
      1,           0.,          7.5,           5.
      2,          10.,          10.,           5.
      3,          10.,          10.,           0.
      4,           0.,          7.5,           0.
      5,   3.53553391,   3.53553391,           5.
      6,   3.53553391,   3.53553391,           0.
      7,           0.,           5.,           0.
      8,           0.,           5.,           5.
      9,          10.,          20.,           0.
     10,          10.,          20.,           5.
     11,           0.,          10.,           0.
     12,           0.,          20.,           0.
     13,           0.,          20.,           5.
     14,           0.,          10.,           5.
     15,          10.,           0.,           5.
     16,          10.,           0.,           0.
     17,           5.,           0.,           5.
     18,           5.,           0.,           0.
     19,        0.625,      7.65625,           5.
     20,         1.25,       7.8125,           5.
** ... 2840 like lines cut
*Element, type=C3D8R
  1,  104,  409, 1727,  373,    1,   19,  313,   52
  2,  409,  410, 1728, 1727,   19,   20,  314,  313
  3,  410,  411, 1729, 1728,   20,   21,  315,  314
  4,  411,  412, 1730, 1729,   21,   22,  316,  315
  5,  412,  413, 1731, 1730,   22,   23,  317,  316
  6,  413,  414, 1732, 1731,   23,   24,  318,  317
  7,  414,  415, 1733, 1732,   24,   25,  319,  318
  8,  415,  416, 1734, 1733,   25,   26,  320,  319
  9,  416,  417, 1735, 1734,   26,   27,  321,  320
 10,  417,  418, 1736, 1735,   27,   28,  322,  321
 11,  418,  419, 1737, 1736,   28,   29,  323,  322
 12,  419,  420, 1738, 1737,   29,   30,  324,  323
 13,  420,  421, 1739, 1738,   30,   31,  325,  324
 14,  421,  422, 1740, 1739,   31,   32,  326,  325
 15,  422,  423, 1741, 1740,   32,   33,  327,  326
 16,  423,  122,  391, 1741,   33,    2,   34,  327
 17,  373, 1727, 1742,  374,   52,  313,  328,   51
 18, 1727, 1728, 1743, 1742,  313,  314,  329,  328
 19, 1728, 1729, 1744, 1743,  314,  315,  330,  329
 20, 1729, 1730, 1745, 1744,  315,  316,  331,  330
** ... 1936 like lines cut
*Nset, nset=Set-1, generate
    1,  2860,     1
*Elset, elset=Set-1, generate
    1,  1956,     1
** Section: Section-1
*Solid Section, elset=Set-1, material=Material-1
,
*End Part
**  
**
** ASSEMBLY
**
*Assembly, name=Assembly
**  
*Instance, name=Part-1-1, part=Part-1
*End Instance
**  
*Nset, nset=Set-3, instance=Part-1-1
   15,   16,   17,   18,  252,  253,  280,  281,  295,  296,  297,  298,  299,  300,  301,  302
  303,  304,  305,  306,  307,  308,  309,  310,  311,  312, 1709, 1710, 1711, 1712, 1713, 1714
 1715, 1716, 1717, 1718, 1719, 1720, 1721, 1722, 1723, 1724, 1725, 1726
*Elset, elset=Set-3, instance=Part-1-1
 1576, 1577, 1578, 1618, 1619, 1620, 1660, 1661, 1662, 1702, 1703, 1704, 1744, 1745, 1746, 1786
 1787, 1788, 1828, 1829, 1830, 1870, 1871, 1872, 1912, 1913, 1914, 1954, 1955, 1956
*Nset, nset=Set-4, instance=Part-1-1
   1,   4,   7,   8,  11,  12,  13,  14,  51,  52,  85,  86,  87,  88,  89,  90
  91,  92,  93,  94,  95,  96,  97,  98,  99, 100, 101, 102, 103, 104, 167, 168
 169, 170, 171, 172, 173, 174, 175, 176, 177, 178, 179, 180, 181, 182, 183, 184
 185, 186, 187, 188, 189, 190, 191, 192, 193, 194, 195, 196, 197, 198, 199, 200
 201, 202, 203, 204, 205, 206, 207, 208, 373, 374, 375, 376, 377, 378, 379, 380
 381, 382, 383, 384, 385, 386, 387, 388, 389, 390, 721, 722, 723, 724, 725, 726
 727, 728, 729, 730, 731, 732, 733, 734, 735, 736, 737, 738, 739, 740, 741, 742
 743, 744, 745, 746, 747, 748, 749, 750, 751, 752, 753, 754, 755, 756, 757, 758
 759, 760, 761, 762
*Elset, elset=Set-4, instance=Part-1-1
    1,   17,   33,   49,   65,   81,   97,  113,  129,  145,  161,  177,  193,  209,  225,  241
  257,  273,  289,  305,  321,  337,  353,  369,  385,  401,  417,  433,  449,  465, 1471, 1472
 1473, 1474, 1475, 1476, 1477, 1478, 1479, 1480, 1481, 1482, 1483, 1484, 1485, 1486, 1487, 1488
 1489, 1490, 1491, 1492, 1493, 1494, 1495, 1496, 1497, 1498, 1499, 1500, 1501, 1502, 1503, 1504
 1505, 1506, 1507, 1508, 1509, 1510, 1511, 1512, 1513, 1514, 1515, 1516, 1517, 1518, 1519, 1520
 1521, 1522, 1523, 1524, 1525, 1526, 1527, 1528, 1529, 1530, 1531, 1532, 1533, 1534, 1535, 1536
*Elset, elset=_Surf-2_S5, internal, instance=Part-1-1
  544,  545,  546,  610,  611,  612,  676,  677,  678,  742,  743,  744,  808,  809,  810,  874
  875,  876,  940,  941,  942, 1006, 1007, 1008, 1072, 1073, 1074, 1138, 1139, 1140, 1204, 1205
 1206, 1270, 1271, 1272, 1336, 1337, 1338, 1402, 1403, 1404, 1468, 1469, 1470, 1534, 1535, 1536
*Surface, type=ELEMENT, name=Surf-2
_Surf-2_S5, S5
*End Assembly
** 
** MATERIALS
** 
*Material, name=Material-1
*Elastic
200000., 0.3
** ----------------------------------------------------------------
** 
** STEP: Step-1
** 
*Step, name=Step-1, nlgeom=NO
*Static
1., 1., 1e-05, 1.
** 
** BOUNDARY CONDITIONS
** 
** Name: BC-1 Type: Displacement/Rotation
*Boundary
Set-3, 2, 2
** Name: BC-2 Type: Displacement/Rotation
*Boundary
Set-4, 1, 1
** 
** LOADS
** 
** Name: Load-1   Type: Pressure
*Dsload
Surf-2, P, -1.
** 
** OUTPUT REQUESTS
** 
*Restart, write, frequency=0
** 
** FIELD OUTPUT: F-Output-1
** 
*Output, field, variable=PRESELECT
** 
** HISTORY OUTPUT: H-Output-1
** 
*Output, history, variable=PRESELECT
*End Step
