*NODE
1, 0.50000000, 0.00000000
2, 0.60000000, 0.00000000
3, 0.70000000, 0.00000000
4, 0.80000000, 0.00000000
5, 0.90000000, 0.00000000
6, 1.00000000, 0.00000000
7, 1.10000000, 0.00000000
8, 1.20000000, 0.00000000
9, 1.30000000, 0.00000000
10, 1.40000000, 0.00000000
11, 1.50000000, 0.00000000
12, 1.60000000, 0.00000000
13, 1.70000000, 0.00000000
14, 1.80000000, 0.00000000
15, 1.90000000, 0.00000000
16, 2.00000000, 0.00000000
17, 0.50000000, 0.10000000
18, 0.60000000, 0.10000000
19, 0.70000000, 0.10000000
20, 0.80000000, 0.10000000
** ... 399 like lines cut
*ELEMENT, TYPE=CPS3, ELSET=PLATE
1, 1, 2, 18
2, 1, 18, 17
3, 2, 3, 19
4, 2, 19, 18
5, 3, 4, 20
6, 3, 20, 19
7, 4, 5, 21
8, 4, 21, 20
9, 5, 6, 22
10, 5, 22, 21
11, 6, 7, 23
12, 6, 23, 22
13, 7, 8, 24
14, 7, 24, 23
15, 8, 9, 25
16, 8, 25, 24
17, 9, 10, 26
18, 9, 26, 25
19, 10, 11, 27
20, 10, 27, 26
** ... 739 like lines cut
*MATERIAL, NAME=Aluminum
*ELASTIC
200.0e9, 0.3
*SOLID SECTION, ELSET=PLATE, MATERIAL=Aluminum
1.0
*BOUNDARY
1, 2, 2, 0.0
2, 2, 2, 0.0
3, 2, 2, 0.0
4, 2, 2, 0.0
5, 2, 2, 0.0
6, 2, 2, 0.0
7, 2, 2, 0.0
8, 2, 2, 0.0
9, 2, 2, 0.0
10, 2, 2, 0.0
11, 2, 2, 0.0
12, 2, 2, 0.0
13, 2, 2, 0.0
14, 2, 2, 0.0
15, 2, 2, 0.0
16, 2, 2, 0.0
84, 1, 1, 0.0
105, 1, 1, 0.0
126, 1, 1, 0.0
147, 1, 1, 0.0
** ... 12 like lines cut
*CLOAD
16, 1, 50000.00000000
32, 1, 100000.00000000
48, 1, 100000.00000000
65, 1, 100000.00000000
83, 1, 100000.00000000
104, 1, 100000.00000000
125, 1, 100000.00000000
146, 1, 100000.00000000
167, 1, 100000.00000000
188, 1, 100000.00000000
209, 1, 100000.00000000
230, 1, 100000.00000000
251, 1, 100000.00000000
272, 1, 100000.00000000
293, 1, 100000.00000000
314, 1, 100000.00000000
335, 1, 100000.00000000
356, 1, 100000.00000000
377, 1, 100000.00000000
398, 1, 100000.00000000
419, 1, 50000.00000000
*STEP
*STATIC
*END STEP