*Heading
** Job name: Q4 Model name: Model-1
** Generated by: Abaqus/CAE 6.14-1
*Preprint, echo=NO, model=NO, history=NO, contact=NO
**
** PARTS
**
*Part, name=Part-1
*Node
      1,          10.,          10.
      2,   3.53553391,   3.53553391
      3,           5.,           0.
      4,          10.,           0.
      5,           0.,          10.
      6,          10.,          20.
      7,           0.,          20.
      8,           0.,           5.
      9,   9.79798508,   9.79798508
     10,   9.59597111,   9.59597111
     11,   9.39395618,   9.39395618
     12,   9.19194221,   9.19194221
     13,   8.98992729,   8.98992729
     14,   8.78791237,   8.78791237
     15,    8.5858984,    8.5858984
     16,   8.38388348,   8.38388348
     17,   8.18186855,   8.18186855
     18,   7.97985458,   7.97985458
     19,   7.77783966,   7.77783966
     20,   7.57582521,   7.57582521
** ... 2339 like lines cut
*Element, type=CPS4R
   1,    1,    9,  266,  138
   2,    9,   10,  267,  266
   3,   10,   11,  268,  267
   4,   11,   12,  269,  268
   5,   12,   13,  270,  269
   6,   13,   14,  271,  270
   7,   14,   15,  272,  271
   8,   15,   16,  273,  272
   9,   16,   17,  274,  273
  10,   17,   18,  275,  274
  11,   18,   19,  276,  275
  12,   19,   20,  277,  276
  13,   20,   21,  278,  277
  14,   21,   22,  279,  278
  15,   22,   23,  280,  279
  16,   23,   24,  281,  280
  17,   24,   25,  282,  281
  18,   25,   26,  283,  282
  19,   26,   27,  284,  283
  20,   27,   28,  285,  284
** ... 2234 like lines cut
*Nset, nset=Set-1, generate
    1,  2359,     1
*Elset, elset=Set-1, generate
    1,  2254,     1
** Section: Section-1
*Solid Section, elset=Set-1, material=Material-1
,
*End Part
**  
**
** ASSEMBLY
**
*Assembly, name=Assembly
**  
*Instance, name=Part-1-1, part=Part-1
*End Instance
**  
*Nset, nset=Set-1, instance=Part-1-1
   3,   4,  74,  75,  76,  77,  78,  79,  80,  81,  82,  83,  84,  85,  86,  87
  88,  89,  90,  91,  92,  93,  94,  95,  96,  97,  98,  99, 100, 101, 102, 103
 104,
*Elset, elset=Set-1, instance=Part-1-1, generate
 1089,  1120,     1
*Nset, nset=Set-2, instance=Part-1-1
   5,   7,   8, 200, 201, 202, 203, 204, 205, 206, 207, 208, 209, 210, 211, 212
 213, 214, 215, 216, 217, 218, 219, 220, 221, 222, 223, 224, 225, 226, 227, 228
 229, 230, 231, 232, 233, 234, 235, 236, 237, 238, 239
*Elset, elset=Set-2, instance=Part-1-1
 1121, 1148, 1175, 1202, 1229, 1256, 1283, 1310, 1337, 1364, 1417, 1444, 1471, 1498, 1525, 1552
 1579, 1606, 1633, 1660, 1687, 1714, 1741, 1768, 1795, 1822, 1849, 1876, 1903, 1930, 1957, 1984
 2011, 2038, 2065, 2092, 2119, 2146, 2173, 2200, 2227, 2254
*Elset, elset=_Surf-1_S3, internal, instance=Part-1-1, generate
 1364,  1390,     1
*Surface, type=ELEMENT, name=Surf-1
_Surf-1_S3, S3
*End Assembly
** 
** MATERIALS
** 
*Material, name=Material-1
*Elastic
200000., 0.3
** ----------------------------------------------------------------
** 
** STEP: Step-1
** 
*Step, name=Step-1, nlgeom=NO
*Static
1., 1., 1e-05, 1.
** 
** BOUNDARY CONDITIONS
** 
** Name: BC-1 Type: Displacement/Rotation
*Boundary
Set-1, 2, 2
** Name: BC-2 Type: Displacement/Rotation
*Boundary
Set-2, 1, 1
** 
** LOADS
** 
** Name: Load-1   Type: Pressure
*Dsload
Surf-1, P, -1.
** 
** OUTPUT REQUESTS
** 
*Restart, write, frequency=0
** 
** FIELD OUTPUT: F-Output-1
** 
*Output, field, variable=PRESELECT
** 
** HISTORY OUTPUT: H-Output-1
** 
*Output, history, variable=PRESELECT
*End Step
