*NODE
1, 0.0, 0.0
2, 0.1, 0.0
3, 0.2, 0.0
4, 0.0, 0.1
5, 0.1, 0.1
6, 0.2, 0.1
7, 0.0, 0.2
8, 0.1, 0.2
9, 0.2, 0.2
*ELEMENT, TYPE=CPS4, ELSET=PLATE
1, 1, 2, 5, 4
2, 2, 3, 6, 5
3, 4, 5, 8, 7
4, 5, 6, 9, 8
*MATERIAL, NAME=Steel
*ELASTIC
210.0e9, 0.3
*SOLID SECTION, ELSET=PLATE, MATERIAL=Steel
0.01
*BOUNDARY
1, 1, 2, 0.0
2, 1, 2, 0.0
3, 1, 2, 0.0
*DLOAD
3, P3, 1.0e5
4, P3, 1.0e5
*STEP
*STATIC
*END STEP