*Heading
** Job name: T3 Model name: Model-1-Copy
** Generated by: Abaqus/CAE 6.14-1
*Preprint, echo=NO, model=NO, history=NO, contact=NO
**
** PARTS
**
*Part, name=Part-1
*Node
      1,          10.,          10.
      2,   3.53553391,   3.53553391
      3,           5.,           0.
      4,          10.,           0.
      5,           0.,          10.
      6,          10.,          20.
      7,           0.,          20.
      8,           0.,           5.
      9,   9.79798508,   9.79798508
     10,   9.59597111,   9.59597111
     11,   9.39395618,   9.39395618
     12,   9.19194221,   9.19194221
     13,   8.98992729,   8.98992729
     14,   8.78791237,   8.78791237
     15,    8.5858984,    8.5858984
     16,   8.38388348,   8.38388348
     17,   8.18186855,   8.18186855
     18,   7.97985458,   7.97985458
     19,   7.77783966,   7.77783966
     20,   7.57582521,   7.57582521
** ... 2339 like lines cut
*Element, type=CPS3
   1,    1,    9,  138
   2,    9,  266,  138
   3,    9,   10,  266
   4,   10,  267,  266
   5,   10,   11,  267
   6,   11,  268,  267
   7,   11,   12,  268
   8,   12,  269,  268
   9,   12,   13,  269
  10,   13,  270,  269
  11,   13,   14,  270
  12,   14,  271,  270
  13,   14,   15,  271
  14,   15,  272,  271
  15,   15,   16,  272
  16,   16,  273,  272
  17,   16,   17,  273
  18,   17,  274,  273
  19,   17,   18,  274
  20,   18,  275,  274
** ... 4488 like lines cut
*Nset, nset=Set-1, generate
    1,  2359,     1
*Elset, elset=Set-1, generate
    1,  4508,     1
** Section: Section-1
*Solid Section, elset=Set-1, material=Material-1
,
*End Part
**  
**
** ASSEMBLY
**
*Assembly, name=Assembly
**  
*Instance, name=Part-1-1, part=Part-1
*End Instance
**  
*Nset, nset=Set-1, instance=Part-1-1
   3,   4,  74,  75,  76,  77,  78,  79,  80,  81,  82,  83,  84,  85,  86,  87
  88,  89,  90,  91,  92,  93,  94,  95,  96,  97,  98,  99, 100, 101, 102, 103
 104,
*Elset, elset=Set-1, instance=Part-1-1, generate
 2178,  2240,     2
*Nset, nset=Set-2, instance=Part-1-1
   5,   7,   8, 200, 201, 202, 203, 204, 205, 206, 207, 208, 209, 210, 211, 212
 213, 214, 215, 216, 217, 218, 219, 220, 221, 222, 223, 224, 225, 226, 227, 228
 229, 230, 231, 232, 233, 234, 235, 236, 237, 238, 239
*Elset, elset=Set-2, instance=Part-1-1
 2241, 2295, 2349, 2403, 2457, 2511, 2565, 2619, 2673, 2727, 2834, 2888, 2942, 2996, 3050, 3104
 3158, 3212, 3266, 3320, 3374, 3428, 3482, 3536, 3590, 3644, 3698, 3752, 3806, 3860, 3914, 3968
 4022, 4076, 4130, 4184, 4238, 4292, 4346, 4400, 4454, 4508
*Elset, elset=_Surf-1_S2, internal, instance=Part-1-1, generate
 2728,  2780,     2
*Surface, type=ELEMENT, name=Surf-1
_Surf-1_S2, S2
*End Assembly
** 
** MATERIALS
** 
*Material, name=Material-1
*Elastic
200000., 0.3
** ----------------------------------------------------------------
** 
** STEP: Step-1
** 
*Step, name=Step-1, nlgeom=NO
*Static
1., 1., 1e-05, 1.
** 
** BOUNDARY CONDITIONS
** 
** Name: BC-1 Type: Displacement/Rotation
*Boundary
Set-1, 2, 2
** Name: BC-2 Type: Displacement/Rotation
*Boundary
Set-2, 1, 1
** 
** LOADS
** 
** Name: Load-1   Type: Pressure
*Dsload
Surf-1, P, -1.
** 
** OUTPUT REQUESTS
** 
*Restart, write, frequency=0
** 
** FIELD OUTPUT: F-Output-1
** 
*Output, field, variable=PRESELECT
** 
** HISTORY OUTPUT: H-Output-1
** 
*Output, history, variable=PRESELECT
*End Step
