*Heading
** Job name: T4 Model name: 3dtet
** Generated by: Abaqus/CAE 6.14-1
*Preprint, echo=NO, model=NO, history=NO, contact=NO
**
** PARTS
**
*Part, name=Part-1
*Node
      1,           0.,          7.5,           5.
      2,          10.,          10.,           5.
      3,          10.,          10.,           0.
      4,           0.,          7.5,           0.
      5,   3.53553391,   3.53553391,           0.
      6,           0.,           5.,           0.
      7,           0.,           5.,           5.
      8,   3.53553391,   3.53553391,           5.
      9,          10.,          20.,           0.
     10,          10.,          20.,           5.
     11,           0.,          10.,           0.
     12,           0.,          20.,           0.
     13,           0.,          20.,           5.
     14,           0.,          10.,           5.
     15,          10.,           0.,           5.
     16,          10.,           0.,           0.
     17,           5.,           0.,           5.
     18,           5.,           0.,           0.
     19,           2.,           8.,           5.
     20,           4.,          8.5,           5.
** ... 1562 like lines cut
*Element, type=C3D4
  1, 893, 894, 895, 261
  2, 213,  30, 896,   1
  3, 249, 897, 898, 893
  4, 893, 894, 899, 217
  5, 217, 893, 895, 900
  6, 893, 901, 894, 898
  7, 893, 897, 261, 902
  8, 893, 241, 897, 902
  9, 903, 220, 242,  25
 10, 904, 905, 309, 311
 11, 905, 906, 907, 908
 12, 904, 906, 907, 905
 13, 906, 909, 910, 911
 14, 910, 894, 912, 906
 15, 906, 911, 913, 909
 16, 914, 911, 906, 894
 17, 915, 233, 916, 917
 18, 915, 310, 918, 917
 19, 255, 918, 915, 919
 20, 919, 255, 254, 915
** ... 6804 like lines cut
*Nset, nset=Set-1, generate
    1,  1582,     1
*Elset, elset=Set-1, generate
    1,  6824,     1
** Section: Section-1
*Solid Section, elset=Set-1, material=Material-1
,
*End Part
**  
**
** ASSEMBLY
**
*Assembly, name=Assembly
**  
*Instance, name=Part-1-1, part=Part-1
*End Instance
**  
*Nset, nset=Set-3, instance=Part-1-1
  15,  16,  17,  18, 158, 159, 186, 187, 188, 189, 190, 191, 192, 193, 194, 195
 196, 197, 198, 199, 200, 201, 202, 203, 204, 205, 704, 705, 706, 707, 708, 709
 710, 711, 712, 713, 714, 715, 716, 717, 718, 719, 720, 721
*Elset, elset=Set-3, instance=Part-1-1
 2899, 3057, 4054, 4319, 4372, 4425, 4632, 4796, 4826, 4831, 4834, 4888, 4899, 4920, 4929, 5010
 5026, 5232, 5233, 5290, 5307, 5312, 5433, 5438, 5711, 5722, 5975, 6002, 6011, 6012, 6016, 6030
 6043, 6050, 6081, 6086, 6093, 6113, 6143, 6150, 6151, 6163, 6171, 6178, 6193, 6194, 6249, 6466
 6472, 6495, 6519, 6544, 6551, 6555, 6556, 6581, 6639, 6652, 6660, 6778
*Nset, nset=Set-4, instance=Part-1-1
   1,   4,   6,   7,  11,  12,  13,  14,  29,  30,  55,  56,  57,  58,  59,  60
  61,  62,  63,  64, 111, 112, 113, 114, 115, 116, 117, 118, 119, 128, 129, 130
 131, 132, 133, 134, 135, 136, 137, 138, 258, 259, 260, 261, 262, 263, 264, 265
 491, 492, 493, 494, 495, 496, 497, 498, 499, 500, 501, 502, 503, 504, 505, 506
 507, 508, 509, 510
*Elset, elset=Set-4, instance=Part-1-1
   77,  104,  187,  247,  251,  299,  331,  334,  336,  351,  353,  754,  768,  785,  806,  819
  820,  824,  826,  828,  831,  833,  835,  865,  874,  876,  892,  906,  918,  939, 1168, 1174
 1306, 1378, 1396, 1409, 1484, 1485, 1486, 1550, 1570, 1643, 1718, 1723, 1786, 1877, 1945, 1977
 2009, 2053, 2055, 2057, 2060, 2084, 2107, 2119, 2122, 2131, 2160, 2166, 2182, 2186, 2191, 2196
 2225, 2228, 2229, 2293, 2320, 2321, 2326, 2329, 2339, 2341, 2343, 2346, 2360, 2362, 2364, 2371
 2378, 2383, 2407, 2442, 2464, 2473, 2502, 2508, 2586, 2635, 2638, 2642, 2643, 2649, 2661, 2676
*Elset, elset=_Surf-2_S3, internal, instance=Part-1-1
 1165, 1296, 1300, 1329, 1406, 1412, 1629, 2017, 2019, 2152, 2236, 2240, 2483, 2485, 2487, 2491
 2499, 2509, 2512, 2567, 2568
*Elset, elset=_Surf-2_S4, internal, instance=Part-1-1
 1306, 2585, 2633, 2638
*Elset, elset=_Surf-2_S2, internal, instance=Part-1-1
 2261, 2470, 2475, 2478, 2579
*Surface, type=ELEMENT, name=Surf-2
_Surf-2_S3, S3
_Surf-2_S4, S4
_Surf-2_S2, S2
*End Assembly
** 
** MATERIALS
** 
*Material, name=Material-1
*Elastic
200000., 0.3
** ----------------------------------------------------------------
** 
** STEP: Step-1
** 
*Step, name=Step-1, nlgeom=NO
*Static
1., 1., 1e-05, 1.
** 
** BOUNDARY CONDITIONS
** 
** Name: BC-1 Type: Displacement/Rotation
*Boundary
Set-3, 2, 2
** Name: BC-2 Type: Displacement/Rotation
*Boundary
Set-4, 1, 1
** 
** LOADS
** 
** Name: Load-1   Type: Pressure
*Dsload
Surf-2, P, -1.
** 
** OUTPUT REQUESTS
** 
*Restart, write, frequency=0
** 
** FIELD OUTPUT: F-Output-1
** 
*Output, field, variable=PRESELECT
** 
** HISTORY OUTPUT: H-Output-1
** 
*Output, history, variable=PRESELECT
*End Step
